<configuration>
    <input>
        <net-file value="exam1no.net.xml"/>
        <route-files value="exam1no.rou.xml"/>
        <gui-settings-file value="exam1.settings.xml"/>
    </input>
    <time>
        <begin value="0"/>
        <end value="6000"/>
    </time>
</configuration>
