<routes>
    <route id="BAC" edges="BdowntoB BtoA AtoC CtoCright"/>
    <route id="ABC" edges="AuptoA AtoB BtoC CtoCright"/>
    <route id="ABC2" edges="AuptoA AtoC CtoCright"/>
    <flow id="up" route="BAC" begin="0" end="20" color="1,1,1" probability="0.5"/>
    <!-- <flow id="up" route="BAC" begin="0" end="50" color="1,1,1" vehsPerHour="200"/> -->
    <flow id="up2" route="BAC" begin="0" end="7200" color="1,0,0" vehsPerHour="526"/>
    <flow id="down" route="ABC" begin="0" end="7200" color="0,1,0" vehsPerHour="500"/>
    <!-- <flow id="three" route="ABC2" begin="0" end="7200" color="0,0,1" probability="0.1"/> -->
    <flow id="three" route="ABC2" begin="0" end="7200" color="0,0,1" vehsPerHour="200"/>

</routes>
