<?xml version="1.0" encoding="UTF-8"?>

<!-- generated on Wed Feb 15 15:20:37 2017 by SUMO netconvert Version dev-SVN-r22961
<?xml version="1.0" encoding="UTF-8"?>

<configuration xmlns:xsi="http://www.w3.org/2001/XMLSchema-instance" xsi:noNamespaceSchemaLocation="http://sumo.dlr.de/xsd/netconvertConfiguration.xsd">

    <input>
        <sumo-net-file value="data/acosta_buslanes.net.xml"/>
        <node-files value="data/input_nodes2.nod.xml"/>
        <edge-files value="data/input_edges2.edg.xml"/>
        <tllogic-files value="data/acosta_tls.add.xml"/>
    </input>

    <output>
        <output-file value="data/acosta_peds.net.xml"/>
    </output>

    <processing>
        <no-turnarounds value="true"/>
        <offset.disable-normalization value="true"/>
        <lefthand value="false"/>
        <junctions.corner-detail value="0"/>
        <check-lane-foes.all value="true"/>
        <sidewalks.guess value="true"/>
        <crossings.guess value="true"/>
    </processing>

    <report>
        <verbose value="true"/>
    </report>

</configuration>
-->

<net version="0.27" xmlns:xsi="http://www.w3.org/2001/XMLSchema-instance" xsi:noNamespaceSchemaLocation="http://sumo.dlr.de/xsd/net_file.xsd">

    <location netOffset="0.00,-207.06" convBoundary="0.00,0.00,1817.58,1350.19" origBoundary="0.00,207.06,1817.58,1557.25" projParameter="!"/>

    <edge id=":0_0" function="internal">
        <lane id=":0_0_0" index="0" disallow="pedestrian" speed="13.89" length="5.51" shape="1412.70,807.87 1414.42,807.84 1415.61,807.87 1416.78,808.04 1418.47,808.41"/>
        <lane id=":0_0_1" index="1" disallow="pedestrian" speed="13.89" length="5.51" shape="1412.57,811.18 1414.10,811.14 1415.16,811.15 1416.21,811.29 1417.71,811.62"/>
    </edge>
    <edge id=":0_2" function="internal">
        <lane id=":0_2_0" index="0" disallow="pedestrian" speed="13.89" length="5.60" shape="1412.57,811.18 1414.06,811.58 1414.82,812.58 1415.57,813.74 1417.00,814.61"/>
        <lane id=":0_2_1" index="1" disallow="pedestrian" speed="13.89" length="5.60" shape="1412.44,814.48 1413.76,814.88 1414.38,815.87 1414.98,817.00 1416.24,817.83"/>
    </edge>
    <edge id=":0_c0" function="crossing" crossingEdges="1b">
        <lane id=":0_c0_0" index="0" allow="pedestrian" speed="1.00" length="6.50" width="4.00" shape="1415.52,812.52 1413.88,818.81"/>
    </edge>
    <edge id=":0_c1" function="crossing" crossingEdges="3">
        <lane id=":0_c1_0" index="0" allow="pedestrian" speed="1.00" length="6.50" width="4.00" shape="1416.89,806.39 1415.40,812.72"/>
    </edge>
    <edge id=":0_c2" function="crossing" crossingEdges="122">
        <lane id=":0_c2_0" index="0" allow="pedestrian" speed="1.00" length="9.81" width="4.00" shape="1414.47,816.03 1414.66,806.23"/>
    </edge>
    <edge id=":0_w0" function="walkingarea">
        <lane id=":0_w0_0" index="0" allow="pedestrian" speed="1.00" length="3.69" width="4.00" shape="1416.47,816.07 1412.47,816.00 1412.25,819.14 1412.13,822.34 1414.95,822.81 1415.90,819.76 1415.81,819.32 1411.94,818.31"/>
    </edge>
    <edge id=":0_w1" function="walkingarea">
        <lane id=":0_w1_0" index="0" allow="pedestrian" speed="1.00" length="1.58" width="4.00" shape="1413.59,812.02 1417.46,813.03 1417.35,812.95 1417.90,811.02 1417.34,813.18 1413.45,812.26"/>
    </edge>
    <edge id=":0_w2" function="walkingarea">
        <lane id=":0_w2_0" index="0" allow="pedestrian" speed="1.00" length="3.62" width="4.00" shape="1414.94,805.93 1418.83,806.85 1418.86,806.76 1419.32,804.81 1412.78,804.17 1412.82,806.17 1412.66,806.19 1416.66,806.27"/>
    </edge>
    <edge id=":1_0" function="internal">
        <lane id=":1_0_0" index="0" disallow="pedestrian" speed="13.89" length="22.21" shape="1506.32,831.36 1501.25,852.90"/>
        <lane id=":1_0_1" index="1" disallow="pedestrian" speed="13.89" length="22.21" shape="1503.13,830.54 1498.04,852.15"/>
        <lane id=":1_0_2" index="2" disallow="pedestrian" speed="13.89" length="22.21" shape="1499.93,829.71 1494.82,851.41"/>
    </edge>
    <edge id=":1_3" function="internal">
        <lane id=":1_3_0" index="0" disallow="pedestrian" speed="13.89" length="3.14" shape="1492.38,842.67 1494.93,843.98"/>
        <lane id=":1_3_1" index="1" disallow="pedestrian" speed="13.89" length="3.14" shape="1491.09,845.71 1494.17,847.21"/>
    </edge>
    <edge id=":1_5" function="internal">
        <lane id=":1_5_0" index="0" speed="13.89" length="11.81" shape="1494.93,843.98 1496.78,844.94 1499.72,847.40 1501.21,850.06 1501.25,852.90"/>
    </edge>
    <edge id=":1_6" function="internal">
        <lane id=":1_6_0" index="0" speed="13.89" length="6.67" shape="1494.17,847.21 1494.41,847.33 1496.67,848.95 1497.88,850.56 1498.04,852.15"/>
    </edge>
    <edge id=":1_c0" function="crossing" crossingEdges="201c">
        <lane id=":1_c0_0" index="0" allow="pedestrian" speed="1.00" length="9.80" width="4.00" shape="1497.88,831.24 1507.37,833.70"/>
    </edge>
    <edge id=":1_w0" function="walkingarea">
        <lane id=":1_w0_0" index="0" allow="pedestrian" speed="1.00" length="14.82" width="4.00" shape="1502.91,853.29 1504.86,853.74 1509.90,832.29 1507.97,831.79 1507.87,831.77 1506.87,835.64"/>
    </edge>
    <edge id=":1_w1" function="walkingarea">
        <lane id=":1_w1_0" index="0" allow="pedestrian" speed="1.00" length="9.98" width="4.00" shape="1497.38,833.18 1498.39,829.31 1493.83,839.26 1493.05,841.10"/>
    </edge>
    <edge id=":10_0" function="internal">
        <lane id=":10_0_0" index="0" disallow="pedestrian" speed="13.89" length="3.95" shape="611.21,930.83 607.00,929.35"/>
        <lane id=":10_0_1" index="1" disallow="pedestrian" speed="13.89" length="3.95" shape="611.21,930.83 610.04,928.09"/>
        <lane id=":10_0_2" index="2" disallow="pedestrian" speed="13.89" length="3.95" shape="611.21,930.83 613.09,926.82"/>
    </edge>
    <edge id=":10_w0" function="walkingarea">
        <lane id=":10_w0_0" index="0" allow="pedestrian" speed="1.00" length="4.48" width="2.00" shape="605.43,930.01 603.58,930.78 607.81,932.29 609.65,931.50"/>
    </edge>
    <edge id=":11_0" function="internal">
        <lane id=":11_0_0" index="0" disallow="pedestrian" speed="13.89" length="3.55" shape="303.13,170.76 303.72,171.54 304.43,171.85 305.14,172.15 305.73,172.93"/>
        <lane id=":11_0_1" index="1" disallow="pedestrian" speed="13.89" length="3.55" shape="303.13,170.76 303.24,171.75 302.90,172.48 302.56,173.21 302.69,174.20"/>
    </edge>
    <edge id=":11_w0" function="walkingarea">
        <lane id=":11_w0_0" index="0" allow="pedestrian" speed="1.00" length="3.36" width="2.00" shape="307.30,172.28 309.15,171.51 306.56,169.37 304.71,170.12"/>
    </edge>
    <edge id=":114-end_0" function="internal">
        <lane id=":114-end_0_0" index="0" allow="bus" speed="13.89" length="4.82" shape="781.38,1351.71 779.92,1351.43 779.23,1350.82 779.29,1349.90 780.12,1348.67"/>
    </edge>
    <edge id=":114-end_w0" function="walkingarea">
        <lane id=":114-end_w0_0" index="0" allow="pedestrian" speed="1.00" length="15.30" width="2.00" shape="779.47,1347.10 778.70,1345.25 785.33,1361.23 784.56,1359.38"/>
    </edge>
    <edge id=":12_0" function="internal">
        <lane id=":12_0_0" index="0" disallow="pedestrian" speed="13.89" length="7.75" shape="323.37,239.58 321.42,235.60 319.54,232.86"/>
    </edge>
    <edge id=":12_1" function="internal">
        <lane id=":12_1_0" index="0" disallow="pedestrian" speed="13.89" length="14.08" shape="323.37,239.58 322.11,235.63 321.80,232.75 321.50,229.87 320.25,225.92"/>
    </edge>
    <edge id=":12_2" function="internal">
        <lane id=":12_2_0" index="0" disallow="pedestrian" speed="13.89" length="6.94" shape="326.40,238.28 324.88,232.82 325.18,231.59"/>
    </edge>
    <edge id=":12_9" function="internal">
        <lane id=":12_9_0" index="0" speed="13.89" length="4.78" shape="319.54,232.86 319.47,232.76 317.51,231.06 315.53,230.50"/>
    </edge>
    <edge id=":12_10" function="internal">
        <lane id=":12_10_0" index="0" speed="13.89" length="11.86" shape="325.18,231.59 325.76,229.20 329.03,227.40 334.69,227.43"/>
    </edge>
    <edge id=":12_3" function="internal">
        <lane id=":12_3_0" index="0" disallow="pedestrian" speed="13.89" length="6.68" shape="334.24,230.69 330.96,230.68 329.07,231.72 328.78,232.92"/>
    </edge>
    <edge id=":12_4" function="internal">
        <lane id=":12_4_0" index="0" disallow="pedestrian" speed="13.89" length="18.75" shape="334.24,230.69 328.73,230.12 324.92,230.10 321.10,230.33 315.53,230.50"/>
    </edge>
    <edge id=":12_5" function="internal">
        <lane id=":12_5_0" index="0" disallow="pedestrian" speed="13.89" length="10.22" shape="334.24,230.69 328.60,229.74 324.38,228.63 324.26,228.57"/>
    </edge>
    <edge id=":12_11" function="internal">
        <lane id=":12_11_0" index="0" speed="13.89" length="4.21" shape="328.78,232.92 328.56,233.82 329.44,236.99"/>
    </edge>
    <edge id=":12_12" function="internal">
        <lane id=":12_12_0" index="0" speed="13.89" length="4.90" shape="324.26,228.57 321.60,227.36 320.25,225.92"/>
    </edge>
    <edge id=":12_6" function="internal">
        <lane id=":12_6_0" index="0" disallow="pedestrian" speed="13.89" length="5.39" shape="326.70,223.20 327.72,224.71 329.39,225.91 330.79,226.46"/>
    </edge>
    <edge id=":12_7" function="internal">
        <lane id=":12_7_0" index="0" disallow="pedestrian" speed="13.89" length="13.78" shape="323.66,224.48 329.44,236.99"/>
    </edge>
    <edge id=":12_8" function="internal">
        <lane id=":12_8_0" index="0" disallow="pedestrian" speed="13.89" length="4.88" shape="323.66,224.48 324.09,227.09 322.87,228.97"/>
    </edge>
    <edge id=":12_13" function="internal">
        <lane id=":12_13_0" index="0" speed="13.89" length="4.03" shape="330.79,226.46 331.72,226.82 334.69,227.43"/>
    </edge>
    <edge id=":12_14" function="internal">
        <lane id=":12_14_0" index="0" speed="13.89" length="7.57" shape="322.87,228.97 320.02,230.10 315.53,230.50"/>
    </edge>
    <edge id=":12_c0" function="crossing" crossingEdges="24 103">
        <lane id=":12_c0_0" index="0" allow="pedestrian" speed="1.00" length="9.80" width="4.00" shape="330.13,234.52 321.11,238.36"/>
    </edge>
    <edge id=":12_c1" function="crossing" crossingEdges="16 15">
        <lane id=":12_c1_0" index="0" allow="pedestrian" speed="1.00" length="6.50" width="4.00" shape="332.93,225.57 332.05,232.01"/>
    </edge>
    <edge id=":12_c2" function="crossing" crossingEdges="14 104">
        <lane id=":12_c2_0" index="0" allow="pedestrian" speed="1.00" length="10.20" width="4.00" shape="319.55,228.39 328.95,224.43"/>
    </edge>
    <edge id=":12_c3" function="crossing" crossingEdges="49">
        <lane id=":12_c3_0" index="0" allow="pedestrian" speed="1.00" length="3.20" width="4.00" shape="317.54,232.09 317.53,228.89"/>
    </edge>
    <edge id=":12_w0" function="walkingarea">
        <lane id=":12_w0_0" index="0" allow="pedestrian" speed="1.00" length="6.29" width="4.00" shape="319.54,232.08 315.54,232.20 315.55,234.20 319.97,241.03 321.80,240.24 321.90,240.20 320.33,236.52"/>
    </edge>
    <edge id=":12_w1" function="walkingarea">
        <lane id=":12_w1_0" index="0" allow="pedestrian" speed="1.00" length="3.13" width="4.00" shape="329.34,232.68 331.00,236.32 332.84,235.54 333.74,234.36 334.01,232.38 334.03,232.28 330.06,231.73"/>
    </edge>
    <edge id=":12_w2" function="walkingarea">
        <lane id=":12_w2_0" index="0" allow="pedestrian" speed="1.00" length="4.39" width="4.00" shape="330.95,225.30 334.91,225.84 334.93,225.74 335.20,223.76 330.11,221.76 328.26,222.53 328.17,222.58 329.72,226.27"/>
    </edge>
    <edge id=":12_w3" function="walkingarea">
        <lane id=":12_w3_0" index="0" allow="pedestrian" speed="1.00" length="2.10" width="4.00" shape="320.33,230.23 318.77,226.55 318.68,226.59 316.84,227.36 315.53,228.90 319.53,228.88"/>
    </edge>
    <edge id=":13_0" function="internal">
        <lane id=":13_0_0" index="0" disallow="pedestrian" speed="13.89" length="5.72" shape="438.26,244.94 435.34,244.97 433.50,245.95 433.24,246.62"/>
    </edge>
    <edge id=":13_1" function="internal">
        <lane id=":13_1_0" index="0" disallow="pedestrian" speed="13.89" length="15.60" shape="438.26,244.94 422.80,242.87"/>
    </edge>
    <edge id=":13_2" function="internal">
        <lane id=":13_2_0" index="0" disallow="pedestrian" speed="13.89" length="5.37" shape="438.26,244.94 435.11,243.90 433.52,242.59"/>
    </edge>
    <edge id=":13_4" function="internal">
        <lane id=":13_4_0" index="0" speed="13.89" length="4.28" shape="433.24,246.62 432.75,247.89 433.09,250.80"/>
    </edge>
    <edge id=":13_5" function="internal">
        <lane id=":13_5_0" index="0" speed="13.89" length="10.51" shape="433.52,242.59 432.41,241.67 430.15,238.24 428.34,233.62"/>
    </edge>
    <edge id=":13_3" function="internal">
        <lane id=":13_3_0" index="0" disallow="pedestrian" speed="13.89" length="15.58" shape="423.25,239.60 438.69,241.67"/>
    </edge>
    <edge id=":13_c0" function="crossing" crossingEdges="50">
        <lane id=":13_c0_0" index="0" allow="pedestrian" speed="1.00" length="3.20" width="4.00" shape="434.13,248.46 431.04,249.26"/>
    </edge>
    <edge id=":13_c1" function="crossing" crossingEdges="37 38">
        <lane id=":13_c1_0" index="0" allow="pedestrian" speed="1.00" length="6.50" width="4.00" shape="436.91,239.82 436.07,246.27"/>
    </edge>
    <edge id=":13_c2" function="crossing" crossingEdges="33">
        <lane id=":13_c2_0" index="0" allow="pedestrian" speed="1.00" length="3.20" width="4.00" shape="427.39,236.00 430.45,235.07"/>
    </edge>
    <edge id=":13_c3" function="crossing" crossingEdges="15 16">
        <lane id=":13_c3_0" index="0" allow="pedestrian" speed="1.00" length="6.50" width="4.00" shape="424.56,244.72 425.45,238.28"/>
    </edge>
    <edge id=":13_w0" function="walkingarea">
        <lane id=":13_w0_0" index="0" allow="pedestrian" speed="1.00" length="3.09" width="4.00" shape="433.63,246.52 434.73,250.37 436.67,249.87 437.78,248.61 438.04,246.63 438.05,246.53 434.09,246.01"/>
    </edge>
    <edge id=":13_w1" function="walkingarea">
        <lane id=":13_w1_0" index="0" allow="pedestrian" speed="1.00" length="6.58" width="4.00" shape="434.93,239.56 438.89,240.08 438.91,239.98 439.17,238.00 429.87,233.15 431.04,236.98"/>
    </edge>
    <edge id=":13_w2" function="walkingarea">
        <lane id=":13_w2_0" index="0" allow="pedestrian" speed="1.00" length="3.11" width="4.00" shape="427.98,237.91 426.71,234.12 424.80,234.70 423.75,235.93 423.48,237.91 427.43,238.56"/>
    </edge>
    <edge id=":13_w3" function="walkingarea">
        <lane id=":13_w3_0" index="0" allow="pedestrian" speed="1.00" length="6.52" width="4.00" shape="426.54,245.00 422.58,244.45 422.57,244.55 422.29,246.53 431.54,251.20 430.53,247.33"/>
    </edge>
    <edge id=":133-begin_0" function="internal">
        <lane id=":133-begin_0_0" index="0" disallow="pedestrian" speed="13.89" length="4.82" shape="1759.03,528.72 1760.43,529.21 1761.04,529.91 1760.84,530.81 1759.85,531.92"/>
    </edge>
    <edge id=":133-begin_w0" function="walkingarea">
        <lane id=":133-begin_w0_0" index="0" allow="pedestrian" speed="1.00" length="8.70" width="2.00" shape="1760.28,533.56 1760.78,535.50 1758.10,525.14 1758.60,527.08"/>
    </edge>
    <edge id=":135-begin_0" function="internal">
        <lane id=":135-begin_0_0" index="0" disallow="pedestrian" speed="13.89" length="4.82" shape="929.40,1098.11 929.12,1099.57 928.52,1100.27 927.60,1100.21 926.36,1099.39"/>
    </edge>
    <edge id=":135-begin_w0" function="walkingarea">
        <lane id=":135-begin_w0_0" index="0" allow="pedestrian" speed="1.00" length="8.70" width="2.00" shape="924.80,1100.06 922.96,1100.84 932.80,1096.66 930.96,1097.44"/>
    </edge>
    <edge id=":137-begin_0" function="internal">
        <lane id=":137-begin_0_0" index="0" disallow="pedestrian" speed="13.89" length="4.82" shape="457.44,1074.97 455.98,1074.67 455.28,1074.07 455.35,1073.15 456.18,1071.91"/>
    </edge>
    <edge id=":137-begin_w0" function="walkingarea">
        <lane id=":137-begin_w0_0" index="0" allow="pedestrian" speed="1.00" length="8.70" width="2.00" shape="455.54,1070.34 454.78,1068.49 458.84,1078.39 458.08,1076.54"/>
    </edge>
    <edge id=":15_0" function="internal">
        <lane id=":15_0_0" index="0" disallow="pedestrian" speed="13.89" length="5.20" shape="802.70,820.49 801.45,818.39 800.10,817.34"/>
        <lane id=":15_0_1" index="1" disallow="pedestrian" speed="13.89" length="5.20" shape="802.70,820.49 800.88,817.07 799.30,815.31"/>
    </edge>
    <edge id=":15_2" function="internal">
        <lane id=":15_2_0" index="0" disallow="pedestrian" speed="13.89" length="12.34" shape="805.89,819.54 804.53,814.51 805.34,810.70 807.77,808.57"/>
    </edge>
    <edge id=":15_7" function="internal">
        <lane id=":15_7_0" index="0" speed="13.89" length="4.47" shape="800.10,817.34 799.87,817.16 797.99,816.80 795.78,817.30"/>
    </edge>
    <edge id=":15_8" function="internal">
        <lane id=":15_8_0" index="0" speed="13.89" length="5.15" shape="799.30,815.31 798.91,814.88 796.81,813.93 794.57,814.23"/>
    </edge>
    <edge id=":15_9" function="internal">
        <lane id=":15_9_0" index="0" speed="13.89" length="6.07" shape="807.77,808.57 808.32,808.09 813.47,806.69"/>
    </edge>
    <edge id=":15_3" function="internal">
        <lane id=":15_3_0" index="0" disallow="pedestrian" speed="13.89" length="10.81" shape="802.44,795.88 803.51,799.64 805.64,802.14 808.82,803.40 809.02,803.40"/>
    </edge>
    <edge id=":15_4" function="internal">
        <lane id=":15_4_0" index="0" disallow="pedestrian" speed="13.89" length="6.03" shape="802.44,795.88 802.61,801.91"/>
    </edge>
    <edge id=":15_10" function="internal">
        <lane id=":15_10_0" index="0" speed="13.89" length="4.03" shape="809.02,803.40 813.06,803.42"/>
    </edge>
    <edge id=":15_11" function="internal">
        <lane id=":15_11_0" index="0" speed="13.89" length="15.58" shape="802.61,801.91 802.63,802.48 801.38,807.73 798.69,811.65 794.57,814.23"/>
    </edge>
    <edge id=":15_5" function="internal">
        <lane id=":15_5_0" index="0" disallow="pedestrian" speed="13.89" length="21.81" shape="791.14,805.55 797.34,803.67 801.84,803.46 806.46,803.76 813.06,803.42"/>
        <lane id=":15_5_1" index="1" disallow="pedestrian" speed="13.89" length="21.81" shape="792.36,808.61 798.33,806.83 802.66,806.67 807.12,807.00 813.47,806.69"/>
    </edge>
    <edge id=":15_c0" function="crossing" crossingEdges="18">
        <lane id=":15_c0_0" index="0" allow="pedestrian" speed="1.00" length="6.51" width="4.00" shape="806.56,817.07 800.44,819.30"/>
    </edge>
    <edge id=":15_c1" function="crossing" crossingEdges="69">
        <lane id=":15_c1_0" index="0" allow="pedestrian" speed="1.00" length="6.50" width="4.00" shape="810.87,802.08 811.69,808.53"/>
    </edge>
    <edge id=":15_c2" function="crossing" crossingEdges="191">
        <lane id=":15_c2_0" index="0" allow="pedestrian" speed="1.00" length="3.20" width="4.00" shape="801.10,798.07 804.27,797.67"/>
    </edge>
    <edge id=":15_c3" function="crossing" crossingEdges="72[1]">
        <lane id=":15_c3_0" index="0" allow="pedestrian" speed="1.00" length="6.50" width="4.00" shape="794.81,809.35 792.40,803.31"/>
    </edge>
    <edge id=":15_c4" function="crossing" crossingEdges="17">
        <lane id=":15_c4_0" index="0" allow="pedestrian" speed="1.00" length="6.50" width="4.00" shape="798.23,818.05 795.84,812.00"/>
    </edge>
    <edge id=":15_w0" function="walkingarea">
        <lane id=":15_w0_0" index="0" allow="pedestrian" speed="1.00" length="2.98" width="4.00" shape="800.09,817.32 796.41,818.88 797.14,820.74 799.18,821.67 801.02,820.87 801.12,821.18 799.75,817.42"/>
    </edge>
    <edge id=":15_w1" function="walkingarea">
        <lane id=":15_w1_0" index="0" allow="pedestrian" speed="1.00" length="7.50" width="4.00" shape="805.87,815.19 807.24,818.94 811.09,818.00 814.14,817.04 814.23,812.25 813.74,809.08 813.68,808.28 809.71,808.78"/>
    </edge>
    <edge id=":15_w2" function="walkingarea">
        <lane id=":15_w2_0" index="0" allow="pedestrian" speed="1.00" length="6.54" width="4.00" shape="808.89,802.34 812.84,801.73 812.51,799.15 806.11,795.43 804.13,795.67 804.52,799.66"/>
    </edge>
    <edge id=":15_w3" function="walkingarea">
        <lane id=":15_w3_0" index="0" allow="pedestrian" speed="1.00" length="8.15" width="4.00" shape="801.35,800.05 800.85,796.08 789.78,802.11 790.53,803.96 794.26,802.57"/>
    </edge>
    <edge id=":15_w4" function="walkingarea">
        <lane id=":15_w4_0" index="0" allow="pedestrian" speed="1.00" length="2.85" width="4.00" shape="797.70,811.27 793.98,812.74 792.95,810.09 796.67,808.61"/>
    </edge>
    <edge id=":16_0" function="internal">
        <lane id=":16_0_0" index="0" disallow="pedestrian" speed="13.89" length="4.05" shape="663.16,855.00 660.51,858.89"/>
        <lane id=":16_0_1" index="1" disallow="pedestrian" speed="13.89" length="4.05" shape="662.81,851.72 660.28,855.60"/>
        <lane id=":16_0_2" index="2" disallow="pedestrian" speed="13.89" length="4.05" shape="662.81,851.72 661.98,851.86 661.43,852.03 660.88,852.19 660.06,852.31"/>
    </edge>
    <edge id=":16_w0" function="walkingarea">
        <lane id=":16_w0_0" index="0" allow="pedestrian" speed="1.00" length="4.77" width="2.00" shape="660.63,860.59 660.77,862.58 663.56,858.68 663.34,856.69"/>
    </edge>
    <edge id=":17_0" function="internal">
        <lane id=":17_0_0" index="0" disallow="pedestrian" speed="13.89" length="0.21" shape="816.37,851.37 816.17,851.44"/>
        <lane id=":17_0_1" index="1" disallow="pedestrian" speed="13.89" length="0.21" shape="819.39,850.04 819.19,850.12"/>
    </edge>
    <edge id=":17_c0" function="crossing" crossingEdges="181">
        <lane id=":17_c0_0" index="0" allow="pedestrian" speed="1.00" length="6.50" width="4.00" shape="820.03,847.56 814.09,850.20"/>
    </edge>
    <edge id=":17_w0" function="walkingarea">
        <lane id=":17_w0_0" index="0" allow="pedestrian" speed="1.00" length="1.62" width="4.00" shape="814.61,852.13 812.78,852.93 812.98,852.86 814.81,852.05 813.28,848.37"/>
    </edge>
    <edge id=":17_w1" function="walkingarea">
        <lane id=":17_w1_0" index="0" allow="pedestrian" speed="1.00" length="1.79" width="4.00" shape="819.22,845.73 820.84,849.39 821.00,849.33 823.93,848.04 823.98,848.21 820.93,849.17"/>
    </edge>
    <edge id=":18_0" function="internal">
        <lane id=":18_0_0" index="0" disallow="pedestrian" speed="13.89" length="10.91" shape="468.52,384.98 467.05,382.29 465.23,380.29 463.06,378.97 460.54,378.35"/>
    </edge>
    <edge id=":18_1" function="internal">
        <lane id=":18_1_0" index="0" disallow="pedestrian" speed="13.89" length="12.21" shape="468.52,384.98 467.19,380.85 467.26,378.01 468.73,376.44 471.60,376.16"/>
    </edge>
    <edge id=":18_2" function="internal">
        <lane id=":18_2_0" index="0" disallow="pedestrian" speed="13.89" length="10.79" shape="471.27,379.44 460.54,378.35"/>
    </edge>
    <edge id=":18_3" function="internal">
        <lane id=":18_3_0" index="0" disallow="pedestrian" speed="13.89" length="10.76" shape="463.93,369.69 464.98,372.29 466.60,374.23 468.81,375.52 471.60,376.16"/>
    </edge>
    <edge id=":18_4" function="internal">
        <lane id=":18_4_0" index="0" disallow="pedestrian" speed="13.89" length="11.34" shape="463.93,369.69 464.62,373.70 464.28,376.48 462.92,378.03 460.54,378.35"/>
    </edge>
    <edge id=":18_5" function="internal">
        <lane id=":18_5_0" index="0" disallow="pedestrian" speed="13.89" length="10.77" shape="460.88,375.06 471.60,376.16"/>
    </edge>
    <edge id=":18_c0" function="crossing" crossingEdges="51">
        <lane id=":18_c0_0" index="0" allow="pedestrian" speed="1.00" length="3.20" width="4.00" shape="469.21,382.51 466.27,383.77"/>
    </edge>
    <edge id=":18_c1" function="crossing" crossingEdges="219 220">
        <lane id=":18_c1_0" index="0" allow="pedestrian" speed="1.00" length="6.50" width="4.00" shape="469.77,374.37 469.12,380.83"/>
    </edge>
    <edge id=":18_c2" function="crossing" crossingEdges="50">
        <lane id=":18_c2_0" index="0" allow="pedestrian" speed="1.00" length="3.20" width="4.00" shape="462.88,372.02 465.98,371.22"/>
    </edge>
    <edge id=":18_c3" function="crossing" crossingEdges="19 20">
        <lane id=":18_c3_0" index="0" allow="pedestrian" speed="1.00" length="6.50" width="4.00" shape="462.36,380.14 463.03,373.68"/>
    </edge>
    <edge id=":18_w0" function="walkingarea">
        <lane id=":18_w0_0" index="0" allow="pedestrian" speed="1.00" length="5.18" width="4.00" shape="464.35,380.35 460.37,379.94 460.36,380.04 460.15,382.03 465.12,386.43 466.96,385.65 465.48,381.93"/>
    </edge>
    <edge id=":18_w1" function="walkingarea">
        <lane id=":18_w1_0" index="0" allow="pedestrian" speed="1.00" length="1.93" width="4.00" shape="468.43,380.67 469.99,384.35 470.90,383.12 471.10,381.13 467.13,380.64"/>
    </edge>
    <edge id=":18_w2" function="walkingarea">
        <lane id=":18_w2_0" index="0" allow="pedestrian" speed="1.00" length="4.83" width="4.00" shape="467.78,374.17 471.77,374.47 471.97,372.48 467.51,368.76 465.57,369.26 466.48,373.16"/>
    </edge>
    <edge id=":18_w3" function="walkingarea">
        <lane id=":18_w3_0" index="0" allow="pedestrian" speed="1.00" length="1.90" width="4.00" shape="463.38,373.96 462.38,370.09 461.26,371.38 461.05,373.37 461.04,373.47 465.02,373.89"/>
    </edge>
    <edge id=":19_0" function="internal">
        <lane id=":19_0_0" index="0" disallow="pedestrian" speed="13.89" length="14.97" shape="382.36,380.09 377.43,366.36"/>
        <lane id=":19_0_1" index="1" disallow="pedestrian" speed="13.89" length="14.97" shape="382.36,380.09 381.17,375.81 381.36,372.60 381.58,369.38 380.47,365.06"/>
    </edge>
    <edge id=":19_2" function="internal">
        <lane id=":19_2_0" index="0" disallow="pedestrian" speed="13.89" length="12.38" shape="382.36,380.09 380.67,374.14 381.84,370.13 383.62,369.22"/>
    </edge>
    <edge id=":19_7" function="internal">
        <lane id=":19_7_0" index="0" speed="13.89" length="9.41" shape="383.62,369.22 385.87,368.07 392.76,367.96"/>
    </edge>
    <edge id=":19_3" function="internal">
        <lane id=":19_3_0" index="0" disallow="pedestrian" speed="13.89" length="10.81" shape="392.42,371.25 389.17,371.34 387.32,372.44 386.86,374.54 387.79,377.66"/>
    </edge>
    <edge id=":19_4" function="internal">
        <lane id=":19_4_0" index="0" disallow="pedestrian" speed="13.89" length="16.17" shape="392.42,371.25 386.42,370.41 381.92,369.32 378.93,367.97 377.43,366.36"/>
    </edge>
    <edge id=":19_5" function="internal">
        <lane id=":19_5_0" index="0" disallow="pedestrian" speed="13.89" length="6.56" shape="383.50,363.77 384.62,365.30 386.54,366.51 388.81,367.25"/>
    </edge>
    <edge id=":19_6" function="internal">
        <lane id=":19_6_0" index="0" disallow="pedestrian" speed="13.89" length="14.56" shape="383.50,363.77 384.96,367.82 385.60,370.73 386.26,373.63 387.79,377.66"/>
    </edge>
    <edge id=":19_8" function="internal">
        <lane id=":19_8_0" index="0" speed="13.89" length="4.02" shape="388.81,367.25 389.25,367.40 392.76,367.96"/>
    </edge>
    <edge id=":19_c0" function="crossing" crossingEdges="21b">
        <lane id=":19_c0_0" index="0" allow="pedestrian" speed="1.00" length="3.20" width="4.00" shape="383.00,377.61 380.08,378.93"/>
    </edge>
    <edge id=":19_c1" function="crossing" crossingEdges="22">
        <lane id=":19_c1_0" index="0" allow="pedestrian" speed="1.00" length="3.20" width="4.00" shape="388.42,375.18 385.51,376.49"/>
    </edge>
    <edge id=":19_c2" function="crossing" crossingEdges="20 19">
        <lane id=":19_c2_0" index="0" allow="pedestrian" speed="1.00" length="6.50" width="4.00" shape="390.94,366.17 390.27,372.63"/>
    </edge>
    <edge id=":19_c3" function="crossing" crossingEdges="103 24">
        <lane id=":19_c3_0" index="0" allow="pedestrian" speed="1.00" length="9.80" width="4.00" shape="376.75,368.82 385.76,364.98"/>
    </edge>
    <edge id=":19_w0" function="walkingarea">
        <lane id=":19_w0_0" index="0" allow="pedestrian" speed="1.00" length="9.20" width="4.00" shape="377.53,370.66 375.96,366.98 375.87,367.02 374.03,367.81 378.99,381.61 380.81,380.79 380.90,380.75 379.26,377.10"/>
    </edge>
    <edge id=":19_w1" function="walkingarea">
        <lane id=":19_w1_0" index="0" allow="pedestrian" speed="1.00" length="3.13" width="4.00" shape="387.60,373.35 389.24,377.00 389.34,376.96 391.16,376.14 392.04,374.93 392.24,372.94 392.25,372.84 388.28,372.42"/>
    </edge>
    <edge id=":19_w2" function="walkingarea">
        <lane id=":19_w2_0" index="0" allow="pedestrian" speed="1.00" length="5.12" width="4.00" shape="388.95,365.96 392.93,366.37 392.94,366.27 393.15,364.28 386.91,362.32 385.07,363.10 386.55,366.82"/>
    </edge>
    <edge id=":19_w3" function="walkingarea">
        <lane id=":19_w3_0" index="0" allow="pedestrian" speed="1.00" length="2.75" width="4.00" shape="384.69,374.66 386.33,378.31 383.82,379.44 382.18,375.79"/>
    </edge>
    <edge id=":1b_0" function="internal">
        <lane id=":1b_0_0" index="0" disallow="pedestrian" speed="13.89" length="18.21" shape="1477.49,832.01 1482.29,834.23 1484.98,836.91 1487.61,839.80 1492.20,842.59"/>
        <lane id=":1b_0_1" index="1" disallow="pedestrian" speed="13.89" length="18.21" shape="1476.50,835.16 1481.21,837.35 1483.84,840.02 1486.40,842.87 1490.91,845.63"/>
    </edge>
    <edge id=":1b_2" function="internal">
        <lane id=":1b_2_0" index="0" disallow="pedestrian" speed="13.89" length="16.83" shape="1479.96,846.97 1484.43,830.65"/>