<nodes>
    <location netOffset="0.00,0.00" convBoundary="-100.00,-50.00,100.00,50.00" origBoundary="-10000000000.00,-10000000000.00,10000000000.00,10000000000.00" projParameter="!"/>

    <node id="A" x="0.00" y="300.00" type="traffic_light"/>
    <node id="B" x="0.00" y="0.00" type="unregulated"/>
    <node id="C" x="300.00" y="0.00" type="unregulated"/>
    <node id="Aup" x="0.00" y="400.00" type="unregulated"/>
    <node id="Bdown" x="0.00" y="-100.00" type="unregulated"/>
    <node id="Cright" x="400.00" y="0.00" type="unregulated"/>
</nodes>
