<configuration>
    <input>
        <net-file value="exam1light.net.xml"/>
        <route-files value="exam1light.rou.xml"/>
        <gui-settings-file value="exam1.settings.xml"/>
    </input>
    <time>
        <begin value="0"/>
        <end value="3600"/>
    </time>
</configuration>
